Version 4
SHEET 1 2676 1248
WIRE 80 -144 80 -192
WIRE 80 -144 -96 -144
WIRE 256 -144 80 -144
WIRE 432 -144 256 -144
WIRE -448 -96 -448 -144
WIRE 528 -48 -144 -48
WIRE -448 0 -448 -16
WIRE 1120 0 1120 -64
WIRE -320 32 -320 -32
WIRE 432 32 432 -144
WIRE -1504 48 -1584 48
WIRE -1504 64 -1504 48
WIRE 0 64 -64 64
WIRE 256 64 256 -144
WIRE 256 64 224 64
WIRE -64 80 -64 64
WIRE -1584 96 -1584 48
WIRE 1120 112 1120 80
WIRE -320 128 -320 112
WIRE 0 128 -320 128
WIRE 432 128 432 112
WIRE 432 128 224 128
WIRE -1504 160 -1504 144
WIRE -1392 160 -1504 160
WIRE -1168 160 -1168 80
WIRE -1168 160 -1200 160
WIRE -320 176 -320 128
WIRE -144 192 -144 -48
WIRE 0 192 -144 192
WIRE 432 192 432 128
WIRE 432 192 224 192
WIRE 2128 192 1904 192
WIRE -1584 208 -1584 176
WIRE 432 224 432 192
WIRE 1904 224 1904 192
WIRE -1392 256 -1504 256
WIRE -1152 256 -1200 256
WIRE -368 256 -560 256
WIRE -96 256 -96 -144
WIRE 0 256 -96 256
WIRE 288 256 224 256
WIRE -1152 272 -1152 256
WIRE -1008 272 -1152 272
WIRE 1312 272 1168 272
WIRE 1440 272 1392 272
WIRE -1152 288 -1152 272
WIRE -320 320 -320 272
WIRE 288 320 288 256
WIRE -1504 336 -1504 256
WIRE 432 336 432 288
WIRE 944 368 880 368
WIRE 1056 368 1024 368
WIRE 1264 384 1264 352
WIRE 1056 400 1056 368
WIRE 1168 400 1168 272
WIRE 1168 400 1056 400
WIRE 1232 400 1168 400
WIRE -1152 416 -1152 368
WIRE 288 416 288 384
WIRE 1440 416 1440 272
WIRE 1440 416 1296 416
WIRE 1504 416 1440 416
WIRE 1232 432 1136 432
WIRE 2208 432 2208 400
WIRE 2128 448 2128 192
WIRE 2176 448 2128 448
WIRE 2320 464 2240 464
WIRE 944 480 880 480
WIRE 1136 480 1136 432
WIRE 1136 480 1024 480
WIRE 1264 480 1264 448
WIRE 2000 480 1888 480
WIRE 2128 480 2080 480
WIRE 2176 480 2128 480
WIRE 2208 528 2208 496
WIRE 2128 544 2128 480
WIRE 1136 576 1136 480
WIRE 80 624 80 576
WIRE 80 624 -96 624
WIRE 256 624 80 624
WIRE 432 624 256 624
WIRE 2128 656 2128 608
WIRE 1136 688 1136 656
WIRE 528 720 -144 720
WIRE -1520 784 -1696 784
WIRE -1520 800 -1520 784
WIRE -320 800 -320 736
WIRE 432 800 432 624
WIRE -1696 816 -1696 784
WIRE 0 832 -64 832
WIRE 256 832 256 624
WIRE 256 832 224 832
WIRE -64 848 -64 832
WIRE -1520 896 -1520 880
WIRE -1408 896 -1520 896
WIRE -1184 896 -1184 816
WIRE -1184 896 -1216 896
WIRE -320 896 -320 880
WIRE 0 896 -320 896
WIRE 432 896 432 880
WIRE 432 896 224 896
WIRE -1696 928 -1696 896
WIRE -320 944 -320 896
WIRE -144 960 -144 720
WIRE 0 960 -144 960
WIRE 432 960 432 896
WIRE 432 960 224 960
WIRE -1408 992 -1520 992
WIRE -1168 992 -1216 992
WIRE 432 992 432 960
WIRE -1168 1008 -1168 992
WIRE -1024 1008 -1168 1008
WIRE -1168 1024 -1168 1008
WIRE -368 1024 -560 1024
WIRE -96 1024 -96 624
WIRE 0 1024 -96 1024
WIRE 288 1024 224 1024
WIRE -1520 1072 -1520 992
WIRE -320 1088 -320 1040
WIRE 288 1088 288 1024
WIRE 432 1104 432 1056
WIRE -1168 1152 -1168 1104
WIRE 288 1184 288 1152
FLAG 288 416 0
FLAG -448 0 0
FLAG -448 -144 Vcc
IOPIN -448 -144 Out
FLAG 80 -192 Vcc
IOPIN 80 -192 In
FLAG -64 80 0
FLAG 432 336 0
FLAG -1584 208 0
FLAG 528 -48 Vout1
IOPIN 528 -48 Out
FLAG -320 320 0
FLAG -320 -32 Vcc
IOPIN -320 -32 In
FLAG 288 1184 0
FLAG 80 576 Vcc
IOPIN 80 576 In
FLAG -64 848 0
FLAG 432 1104 0
FLAG -1696 928 0
FLAG 528 720 Vout2
IOPIN 528 720 Out
FLAG -320 1088 0
FLAG -320 736 Vcc
IOPIN -320 736 In
FLAG 1136 688 0
FLAG 880 368 Vout1
IOPIN 880 368 In
FLAG 880 480 Vout2
IOPIN 880 480 In
FLAG 1120 112 0
FLAG 1120 -64 V+
FLAG 1264 352 V+
FLAG 1504 416 Vout
IOPIN 1504 416 Out
FLAG 1264 480 0
FLAG 2128 656 0
FLAG 1888 480 Vout
IOPIN 1888 480 In
FLAG 2208 400 V+
FLAG 2208 528 0
FLAG 1904 304 0
FLAG -1504 336 0
FLAG -1168 80 Vcc
IOPIN -1168 80 In
FLAG -1152 416 0
FLAG -1008 272 IsoOut1
IOPIN -1008 272 Out
FLAG -560 256 IsoOut1
IOPIN -560 256 In
FLAG -1520 1072 0
FLAG -1184 816 Vcc
IOPIN -1184 816 In
FLAG -1168 1152 0
FLAG -1024 1008 IsoOut2
IOPIN -1024 1008 Out
FLAG -560 1024 IsoOut2
IOPIN -560 1024 In
SYMBOL Misc\\NE555 112 160 R0
SYMATTR InstName U1
SYMBOL cap 272 320 R0
SYMATTR InstName C1
SYMATTR Value 10n
SYMBOL voltage -448 -112 R0
WINDOW 123 0 0 Left 0
WINDOW 39 0 0 Left 0
SYMATTR InstName V1
SYMATTR Value 5
SYMBOL cap 416 224 R0
SYMATTR InstName C2
SYMATTR Value 10µ
SYMBOL res 416 16 R0
SYMATTR InstName R1
SYMATTR Value 50k
SYMBOL voltage -1584 80 R0
WINDOW 3 -223 108 Left 2
WINDOW 123 0 0 Left 0
WINDOW 39 0 0 Left 0
SYMATTR Value PULSE(0 5 500m 0 0 250m 250m 1)
SYMATTR InstName V2
SYMBOL nmos -368 176 R0
SYMATTR InstName M2
SYMATTR Value Si7336ADP
SYMBOL res -336 16 R0
SYMATTR InstName R3
SYMATTR Value 5k
SYMBOL Misc\\NE555 112 928 R0
SYMATTR InstName U2
SYMBOL cap 272 1088 R0
SYMATTR InstName C3
SYMATTR Value 10n
SYMBOL cap 416 992 R0
SYMATTR InstName C4
SYMATTR Value 10µ
SYMBOL res 416 784 R0
SYMATTR InstName R2
SYMATTR Value 50k
SYMBOL voltage -1696 800 R0
WINDOW 3 -223 108 Left 2
WINDOW 123 0 0 Left 0
WINDOW 39 0 0 Left 0
SYMATTR Value PULSE(0 5 1 0 0 250m 250m 1)
SYMATTR InstName V4
SYMBOL nmos -368 944 R0
SYMATTR InstName M1
SYMATTR Value Si7336ADP
SYMBOL res -336 784 R0
SYMATTR InstName R4
SYMATTR Value 5k
SYMBOL OpAmps\\UniversalOpamp2 1264 416 R0
SYMATTR InstName U3
SYMBOL res 1408 256 R90
WINDOW 0 0 56 VBottom 2
WINDOW 3 32 56 VTop 2
SYMATTR InstName R5
SYMATTR Value 10k
SYMBOL res 1040 352 R90
WINDOW 0 0 56 VBottom 2
WINDOW 3 32 56 VTop 2
SYMATTR InstName R6
SYMATTR Value 2k
SYMBOL res 1040 464 R90
WINDOW 0 0 56 VBottom 2
WINDOW 3 32 56 VTop 2
SYMATTR InstName R7
SYMATTR Value 2k
SYMBOL res 1152 672 R180
WINDOW 0 36 76 Left 2
WINDOW 3 36 40 Left 2
SYMATTR InstName R8
SYMATTR Value 10k
SYMBOL voltage 1120 -16 R0
WINDOW 123 0 0 Left 0
WINDOW 39 0 0 Left 0
SYMATTR InstName V3
SYMATTR Value 12
SYMBOL res 2096 464 R90
WINDOW 0 0 56 VBottom 2
WINDOW 3 32 56 VTop 2
SYMATTR InstName R9
SYMATTR Value 100k
SYMBOL cap 2112 544 R0
SYMATTR InstName C5
SYMATTR Value 10µ
SYMBOL OpAmps\\UniversalOpamp2 2208 464 R0
SYMATTR InstName U4
SYMBOL voltage 1904 208 R0
WINDOW 123 0 0 Left 0
WINDOW 39 0 0 Left 0
SYMATTR InstName V6
SYMATTR Value 4.6
SYMBOL Optos\\PC817A -1296 208 R0
SYMATTR InstName U5
SYMBOL res -1520 48 R0
SYMATTR InstName R10
SYMATTR Value 190
SYMBOL res -1168 272 R0
SYMATTR InstName R11
SYMATTR Value 1.1k
SYMBOL Optos\\PC817A -1312 944 R0
SYMATTR InstName U6
SYMBOL res -1536 784 R0
SYMATTR InstName R12
SYMATTR Value 190
SYMBOL res -1184 1008 R0
SYMATTR InstName R13
SYMATTR Value 1.1k
TEXT -384 -328 Left 2 ;Output pulse duration = 1.1*R1*C2
TEXT -328 -224 Left 2 !.tran 10
TEXT -1424 -16 Left 2 ;Isolation Circuit
TEXT -1440 720 Left 2 ;Isolation Circuit
TEXT -80 1232 Left 2 ;Pulse Generator
